*SPEF "IEEE 1481-1998"
*DESIGN "Filter"
*DATE "Sat Nov 20 17:06:52 2021"
*VENDOR "Cadence Design Systems, Inc."
*PROGRAM "Innovus"
*VERSION "17.11-s080_1"
*DESIGN_FLOW "COUPLING C" "PIN_CAP NONE" "NAME_SCOPE LOCAL"
*DIVIDER /
*DELIMITER :
*BUS_DELIMITER []
*T_UNIT 1 NS
*C_UNIT 1 PF
*R_UNIT 1 OHM
*L_UNIT 1 HENRY

// MMMC spef file for corner 'my_rc'

*NAME_MAP

*1 DIN[9]
*2 DIN[8]
*3 DIN[7]
*4 DIN[6]
*5 DIN[5]
*6 DIN[4]
*7 DIN[3]
*8 DIN[2]
*9 DIN[1]
*10 DIN[0]
*11 B[109]
*12 B[108]
*13 B[107]
*14 B[106]
*15 B[105]
*16 B[104]
*17 B[103]
*18 B[102]
*19 B[101]
*20 B[100]
*21 B[99]
*22 B[98]
*23 B[97]
*24 B[96]
*25 B[95]
*26 B[94]
*27 B[93]
*28 B[92]
*29 B[91]
*30 B[90]
*31 B[89]
*32 B[88]
*33 B[87]
*34 B[86]
*35 B[85]
*36 B[84]
*37 B[83]
*38 B[82]
*39 B[81]
*40 B[80]
*41 B[79]
*42 B[78]
*43 B[77]
*44 B[76]
*45 B[75]
*46 B[74]
*47 B[73]
*48 B[72]
*49 B[71]
*50 B[70]
*51 B[69]
*52 B[68]
*53 B[67]
*54 B[66]
*55 B[65]
*56 B[64]
*57 B[63]
*58 B[62]
*59 B[61]
*60 B[60]
*61 B[59]
*62 B[58]
*63 B[57]
*64 B[56]
*65 B[55]
*66 B[54]
*67 B[53]
*68 B[52]
*69 B[51]
*70 B[50]
*71 B[49]
*72 B[48]
*73 B[47]
*74 B[46]
*75 B[45]
*76 B[44]
*77 B[43]
*78 B[42]
*79 B[41]
*80 B[40]
*81 B[39]
*82 B[38]
*83 B[37]
*84 B[36]
*85 B[35]
*86 B[34]
*87 B[33]
*88 B[32]
*89 B[31]
*90 B[30]
*91 B[29]
*92 B[28]
*93 B[27]
*94 B[26]
*95 B[25]
*96 B[24]
*97 B[23]
*98 B[22]
*99 B[21]
*100 B[20]
*101 B[19]
*102 B[18]
*103 B[17]
*104 B[16]
*105 B[15]
*106 B[14]
*107 B[13]
*108 B[12]
*109 B[11]
*110 B[10]
*111 B[9]
*112 B[8]
*113 B[7]
*114 B[6]
*115 B[5]
*116 B[4]
*117 B[3]
*118 B[2]
*119 B[1]
*120 B[0]
*121 DOUT[9]
*122 DOUT[8]
*123 DOUT[7]
*124 DOUT[6]
*125 DOUT[5]
*126 DOUT[4]
*127 DOUT[3]
*128 DOUT[2]
*129 DOUT[1]
*130 DOUT[0]
*131 VIN
*132 rst_n
*133 clk
*134 VOUT
*135 N203
*136 N204
*137 N205
*138 N206
*139 N207
*140 N208
*141 N209
*142 N210
*143 N211
*144 N212
*145 n156
*146 n157
*147 n158
*148 n159
*149 n160
*150 n161
*151 n162
*152 n163
*153 n164
*154 n165
*155 n167
*156 n168
*157 n169
*158 n170
*159 n171
*160 n172
*161 n173
*162 n174
*163 n175
*164 n176
*165 n177
*166 n178
*167 n179
*168 n180
*169 n181
*170 n182
*171 n183
*172 n184
*173 n185
*174 n186
*175 n187
*176 n188
*177 n189
*178 n190
*179 n191
*180 n192
*181 n193
*182 n194
*183 n195
*184 n196
*185 n197
*186 n198
*187 n199
*188 n200
*189 n201
*190 n202
*191 n203
*192 n204
*193 n205
*194 n206
*195 n207
*196 n208
*197 n209
*198 n210
*199 n211
*200 n212
*201 n213
*202 n214
*203 n215
*204 n216
*205 n217
*206 n218
*207 n219
*208 n220
*209 n221
*210 n222
*211 n223
*212 n224
*213 n225
*214 n226
*215 n227
*216 n228
*217 n229
*218 n230
*219 n231
*220 n232
*221 n233
*222 n234
*223 n235
*224 n236
*225 n237
*226 n238
*227 n239
*228 n240
*229 n241
*230 n242
*231 n243
*232 n244
*233 n245
*234 n246
*235 n247
*236 n248
*237 n249
*238 n250
*239 n251
*240 n252
*241 n253
*242 n254
*243 n255
*244 n256
*245 n257
*246 n258
*247 n259
*248 n260
*249 n261
*250 n262
*251 n263
*252 n264
*253 n265
*254 n266
*255 n267
*256 n268
*257 n269
*258 n270
*259 n271
*260 n272
*261 n273
*262 n274
*263 n275
*264 n276
*265 n277
*266 n278
*267 n279
*268 n280
*269 n281
*270 n282
*271 n283
*272 n284
*273 n285
*274 n286
*275 n287
*276 n373
*277 n374
*278 n375
*279 n376
*280 n377
*281 n378
*282 n379
*283 n388
*284 N99
*285 N98
*286 N97
*287 N96
*288 N95
*289 N94
*290 N93
*291 N92
*292 N91
*293 N90
*294 N9
*295 N89
*296 N88
*297 N87
*298 N86
*299 N85
*300 N84
*301 N83
*302 N82
*303 N81
*304 N80
*305 N8
*306 N79
*307 N78
*308 N77
*309 N76
*310 N75
*311 N74
*312 N73
*313 N72
*314 N71
*315 N70
*316 N7
*317 N69
*318 N68
*319 N67
*320 N66
*321 N65
*322 N64
*323 N63
*324 N62
*325 N61
*326 N60
*327 N6
*328 N59
*329 N58
*330 N57
*331 N56
*332 N55
*333 N54
*334 N53
*335 N52
*336 N51
*337 N50
*338 N5
*339 N49
*340 N48
*341 N47
*342 N46
*343 N45
*344 N44
*345 N43
*346 N42
*347 N41
*348 N40
*349 N4
*350 N39
*351 N38
*352 N37
*353 N36
*354 N35
*355 N34
*356 N33
*357 N32
*358 N31
*359 N30
*360 N3
*361 N29
*362 N28
*363 N27
*364 N26
*365 N25
*366 N24
*367 N23
*368 N22
*369 N21
*370 N202
*371 N201
*372 N200
*373 N20
*374 N199
*375 N198
*376 N197
*377 N196
*378 N195
*379 N194
*380 N193
*381 N192
*382 N191
*383 N190
*384 N19
*385 N189
*386 N188
*387 N187
*388 N186
*389 N185
*390 N184
*391 N183
*392 N182
*393 N181
*394 N180
*395 N18
*396 N179
*397 N178
*398 N177
*399 N176
*400 N175
*401 N174
*402 N173
*403 N172
*404 N171
*405 N170
*406 N17
*407 N169
*408 N168
*409 N167
*410 N166
*411 N165
*412 N164
*413 N163
*414 N162
*415 N161
*416 N160
*417 N16
*418 N159
*419 N158
*420 N157
*421 N156
*422 N155
*423 N154
*424 N153
*425 N152
*426 N151
*427 N150
*428 N15
*429 N149
*430 N148
*431 N147
*432 N146
*433 N145
*434 N144
*435 N143
*436 N142
*437 N141
*438 N140
*439 N14
*440 N139
*441 N138
*442 N137
*443 N136
*444 N135
*445 N134
*446 N133
*447 N132
*448 N131
*449 N130
*450 N13
*451 N129
*452 N128
*453 N127
*454 N126
*455 N125
*456 N124
*457 N123
*458 N122
*459 N121
*460 N120
*461 N12
*462 N119
*463 N118
*464 N117
*465 N116
*466 N115
*467 N114
*468 N113
*469 N112
*470 N111
*471 N110
*472 N11
*473 N109
*474 N108
*475 N107
*476 N106
*477 N105
*478 N104
*479 N103
*480 N102
*481 N101
*482 N100
*483 N10
*484 n715
*485 n716
*486 n717
*487 n718
*488 n719
*489 n720
*490 n721
*491 n722
*492 n723
*493 n724
*494 n725
*495 n726
*496 n727
*497 n728
*498 n729
*499 n730
*500 n731
*501 n732
*502 n733
*503 n734
*504 n735
*505 n736
*506 n737
*507 n738
*508 n739
*509 n740
*510 n741
*511 n742
*512 n743
*513 n744
*514 n745
*515 n746
*516 n747
*517 n748
*518 n749
*519 n750
*520 n751
*521 n752
*522 n753
*523 n754
*524 n755
*525 n756
*526 n757
*527 n758
*528 n759
*529 n760
*530 n761
*531 n762
*532 n763
*533 n764
*534 n765
*535 n766
*536 n767
*537 n768
*538 n769
*539 n770
*540 n771
*541 n772
*542 n773
*543 n774
*544 n775
*545 n776
*546 n777
*547 n778
*548 n779
*549 n780
*550 n781
*551 n782
*552 n783
*553 n784
*554 n785
*555 n786
*556 n787
*557 n788
*558 n789
*559 n790
*560 n791
*561 n792
*562 n793
*563 n794
*564 n795
*565 n796
*566 n797
*567 n798
*568 n799
*569 n800
*570 n801
*571 n802
*572 n803
*573 n804
*574 n805
*575 n806
*576 n807
*577 n808
*578 n809
*579 n810
*580 n811
*581 n812
*582 n813
*583 n814
*584 n815
*585 n816
*586 n817
*587 n818
*588 n819
*589 n820
*590 n845
*591 n846
*592 n847
*593 n848
*594 n849
*595 n850
*596 n851
*597 n852
*598 n853
*599 n854
*600 n855
*601 n856
*602 n857
*603 n858
*604 n859
*605 n860
*606 n861
*607 n862
*608 n863
*609 n864
*610 n865
*611 n866
*612 mult_41_n543
*613 mult_41_n542
*614 mult_41_n541
*615 mult_41_n540
*616 mult_41_n539
*617 mult_41_n538
*618 mult_41_n537
*619 mult_41_n536
*620 mult_41_n535
*621 mult_41_n534
*622 mult_41_n533
*623 mult_41_n532
*624 mult_41_n531
*625 mult_41_n530
*626 mult_41_n529
*627 mult_41_n528
*628 mult_41_n527
*629 mult_41_n526
*630 mult_41_n525
*631 mult_41_n524
*632 mult_41_n523
*633 mult_41_n522
*634 mult_41_n521
*635 mult_41_n520
*636 mult_41_n519
*637 mult_41_n518
*638 mult_41_n517
*639 mult_41_n516
*640 mult_41_n515
*641 mult_41_n514
*642 mult_41_n513
*643 mult_41_n512
*644 mult_41_n511
*645 mult_41_n510
*646 mult_41_n509
*647 mult_41_n508
*648 mult_41_n507
*649 mult_41_n506
*650 mult_41_n505
*651 mult_41_n504
*652 mult_41_n503
*653 mult_41_n502
*654 mult_41_n501
*655 mult_41_n500
*656 mult_41_n499
*657 mult_41_n498
*658 mult_41_n497
*659 mult_41_n496
*660 mult_41_n495
*661 mult_41_n494
*662 mult_41_n493
*663 mult_41_n492
*664 mult_41_n491
*665 mult_41_n490
*666 mult_41_n489
*667 mult_41_n488
*668 mult_41_n487
*669 mult_41_n486
*670 mult_41_n485
*671 mult_41_n484
*672 mult_41_n483
*673 mult_41_n482
*674 mult_41_n481
*675 mult_41_n480
*676 mult_41_n823
*677 mult_41_n822
*678 mult_41_n821
*679 mult_41_n820
*680 mult_41_n819
*681 mult_41_n818
*682 mult_41_n817
*683 mult_41_n816
*684 mult_41_n815
*685 mult_41_n814
*686 mult_41_n813
*687 mult_41_n812
*688 mult_41_n811
*689 mult_41_n810
*690 mult_41_n809
*691 mult_41_n808
*692 mult_41_n807
*693 mult_41_n806
*694 mult_41_n805
*695 mult_41_n804
*696 mult_41_n803
*697 mult_41_n802
*698 mult_41_n801
*699 mult_41_n800
*700 mult_41_n799
*701 mult_41_n798
*702 mult_41_n797
*703 mult_41_n796
*704 mult_41_n795
*705 mult_41_n794
*706 mult_41_n793
*707 mult_41_n792
*708 mult_41_n791
*709 mult_41_n790
*710 mult_41_n789
*711 mult_41_n788
*712 mult_41_n787
*713 mult_41_n786
*714 mult_41_n785
*715 mult_41_n784
*716 mult_41_n783
*717 mult_41_n782
*718 mult_41_n781
*719 mult_41_n780
*720 mult_41_n779
*721 mult_41_n778
*722 mult_41_n777
*723 mult_41_n776
*724 mult_41_n775
*725 mult_41_n774
*726 mult_41_n773
*727 mult_41_n772
*728 mult_41_n771
*729 mult_41_n770
*730 mult_41_n769
*731 mult_41_n768
*732 mult_41_n767
*733 mult_41_n766
*734 mult_41_n765
*735 mult_41_n764
*736 mult_41_n763
*737 mult_41_n762
*738 mult_41_n761
*739 mult_41_n760
*740 mult_41_n759
*741 mult_41_n758
*742 mult_41_n757
*743 mult_41_n756
*744 mult_41_n755
*745 mult_41_n754
*746 mult_41_n753
*747 mult_41_n752
*748 mult_41_n751
*749 mult_41_n750
*750 mult_41_n749
*751 mult_41_n748
*752 mult_41_n747
*753 mult_41_n746
*754 mult_41_n745
*755 mult_41_n744
*756 mult_41_n743
*757 mult_41_n742
*758 mult_41_n741
*759 mult_41_n740
*760 mult_41_n739
*761 mult_41_n738
*762 mult_41_n737
*763 mult_41_n736
*764 mult_41_n735
*765 mult_41_n734
*766 mult_41_n733
*767 mult_41_n732
*768 mult_41_n731
*769 mult_41_n730
*770 mult_41_n729
*771 mult_41_n728
*772 mult_41_n727
*773 mult_41_n726
*774 mult_41_n725
*775 mult_41_n724
*776 mult_41_n723
*777 mult_41_n722
*778 mult_41_n721
*779 mult_41_n720
*780 mult_41_n719
*781 mult_41_n718
*782 mult_41_n717
*783 mult_41_n716
*784 mult_41_n715
*785 mult_41_n714
*786 mult_41_n713
*787 mult_41_n712
*788 mult_41_n711
*789 mult_41_n710
*790 mult_41_n709
*791 mult_41_n708
*792 mult_41_n707
*793 mult_41_n706
*794 mult_41_n705
*795 mult_41_n704
*796 mult_41_n703
*797 mult_41_n702
*798 mult_41_n701
*799 mult_41_n700
*800 mult_41_n699
*801 mult_41_n698
*802 mult_41_n697
*803 mult_41_n696
*804 mult_41_n695
*805 mult_41_n694
*806 mult_41_n693
*807 mult_41_n692
*808 mult_41_n691
*809 mult_41_n690
*810 mult_41_n689
*811 mult_41_n688
*812 mult_41_n687
*813 mult_41_n686
*814 mult_41_n685
*815 mult_41_n684
*816 mult_41_n683
*817 mult_41_n682
*818 mult_41_n681
*819 mult_41_n680
*820 mult_41_n679
*821 mult_41_n678
*822 mult_41_n677
*823 mult_41_n676
*824 mult_41_n675
*825 mult_41_n674
*826 mult_41_n673
*827 mult_41_n672
*828 mult_41_n671
*829 mult_41_n670
*830 mult_41_n669
*831 mult_41_n668
*832 mult_41_n667
*833 mult_41_n666
*834 mult_41_n665
*835 mult_41_n664
*836 mult_41_n663
*837 mult_41_n662
*838 mult_41_n661
*839 mult_41_n660
*840 mult_41_n659
*841 mult_41_n658
*842 mult_41_n657
*843 mult_41_n656
*844 mult_41_n655
*845 mult_41_n654
*846 mult_41_n653
*847 mult_41_n652
*848 mult_41_n651
*849 mult_41_n650
*850 mult_41_n649
*851 mult_41_n648
*852 mult_41_n647
*853 mult_41_n646
*854 mult_41_n645
*855 mult_41_n644
*856 mult_41_n643
*857 mult_41_n642
*858 mult_41_n641
*859 mult_41_n640
*860 mult_41_n639
*861 mult_41_n638
*862 mult_41_n637
*863 mult_41_n636
*864 mult_41_n635
*865 mult_41_n634
*866 mult_41_n633
*867 mult_41_n632
*868 mult_41_n631
*869 mult_41_n630
*870 mult_41_n629
*871 mult_41_n628
*872 mult_41_n627
*873 mult_41_n626
*874 mult_41_n625
*875 mult_41_n624
*876 mult_41_n623
*877 mult_41_n622
*878 mult_41_n621
*879 mult_41_n620
*880 mult_41_n619
*881 mult_41_n618
*882 mult_41_n617
*883 mult_41_n616
*884 mult_41_n615
*885 mult_41_n614
*886 mult_41_n613
*887 mult_41_n612
*888 mult_41_n611
*889 mult_41_n610
*890 mult_41_n609
*891 mult_41_n608
*892 mult_41_n607
*893 mult_41_n606
*894 mult_41_n605
*895 mult_41_n604
*896 mult_41_n603
*897 mult_41_n602
*898 mult_41_n601
*899 mult_41_n600
*900 mult_41_n599
*901 mult_41_n598
*902 mult_41_n597
*903 mult_41_n596
*904 mult_41_n595
*905 mult_41_n594
*906 mult_41_n593
*907 mult_41_n592
*908 mult_41_n591
*909 mult_41_n590
*910 mult_41_n589
*911 mult_41_n588
*912 mult_41_n587
*913 mult_41_n586
*914 mult_41_n585
*915 mult_41_n584
*916 mult_41_n583
*917 mult_41_n582
*918 mult_41_n581
*919 mult_41_n580
*920 mult_41_n579
*921 mult_41_n578
*922 mult_41_n577
*923 mult_41_n576
*924 mult_41_n575
*925 mult_41_n574
*926 mult_41_n573
*927 mult_41_n572
*928 mult_41_n571
*929 mult_41_n570
*930 mult_41_n569
*931 mult_41_n568
*932 mult_41_n567
*933 mult_41_n566
*934 mult_41_n565
*935 mult_41_n564
*936 mult_41_n563
*937 mult_41_n562
*938 mult_41_n561
*939 mult_41_n560
*940 mult_41_n559
*941 mult_41_n558
*942 mult_41_n557
*943 mult_41_n556
*944 mult_41_n555
*945 mult_41_n554
*946 mult_41_n553
*947 mult_41_n552
*948 mult_41_n551
*949 mult_41_n550
*950 mult_41_n549
*951 mult_41_n548
*952 mult_41_n547
*953 mult_41_n546
*954 mult_41_n545
*955 mult_41_I2_n547
*956 mult_41_I2_n546
*957 mult_41_I2_n545
*958 mult_41_I2_n544
*959 mult_41_I2_n543
*960 mult_41_I2_n542
*961 mult_41_I2_n541
*962 mult_41_I2_n540
*963 mult_41_I2_n539
*964 mult_41_I2_n538
*965 mult_41_I2_n537
*966 mult_41_I2_n536
*967 mult_41_I2_n535
*968 mult_41_I2_n534
*969 mult_41_I2_n533
*970 mult_41_I2_n532
*971 mult_41_I2_n531
*972 mult_41_I2_n530
*973 mult_41_I2_n529
*974 mult_41_I2_n528
*975 mult_41_I2_n527
*976 mult_41_I2_n526
*977 mult_41_I2_n525
*978 mult_41_I2_n524
*979 mult_41_I2_n523
*980 mult_41_I2_n522
*981 mult_41_I2_n521
*982 mult_41_I2_n520
*983 mult_41_I2_n519
*984 mult_41_I2_n518
*985 mult_41_I2_n517
*986 mult_41_I2_n516
*987 mult_41_I2_n515
*988 mult_41_I2_n514
*989 mult_41_I2_n513
*990 mult_41_I2_n512
*991 mult_41_I2_n511
*992 mult_41_I2_n510
*993 mult_41_I2_n509
*994 mult_41_I2_n508
*995 mult_41_I2_n507
*996 mult_41_I2_n506
*997 mult_41_I2_n505
*998 mult_41_I2_n504
*999 mult_41_I2_n503
*1000 mult_41_I2_n502
*1001 mult_41_I2_n501
*1002 mult_41_I2_n500
*1003 mult_41_I2_n499
*1004 mult_41_I2_n498
*1005 mult_41_I2_n497
*1006 mult_41_I2_n496
*1007 mult_41_I2_n495
*1008 mult_41_I2_n494
*1009 mult_41_I2_n493
*1010 mult_41_I2_n823
*1011 mult_41_I2_n822
*1012 mult_41_I2_n821
*1013 mult_41_I2_n820
*1014 mult_41_I2_n819
*1015 mult_41_I2_n818
*1016 mult_41_I2_n817
*1017 mult_41_I2_n816
*1018 mult_41_I2_n815
*1019 mult_41_I2_n814
*1020 mult_41_I2_n813
*1021 mult_41_I2_n812
*1022 mult_41_I2_n811
*1023 mult_41_I2_n810
*1024 mult_41_I2_n809
*1025 mult_41_I2_n808
*1026 mult_41_I2_n807
*1027 mult_41_I2_n806
*1028 mult_41_I2_n805
*1029 mult_41_I2_n804
*1030 mult_41_I2_n803
*1031 mult_41_I2_n802
*1032 mult_41_I2_n801
*1033 mult_41_I2_n800
*1034 mult_41_I2_n799
*1035 mult_41_I2_n798
*1036 mult_41_I2_n797
*1037 mult_41_I2_n796
*1038 mult_41_I2_n795
*1039 mult_41_I2_n794
*1040 mult_41_I2_n793
*1041 mult_41_I2_n792
*1042 mult_41_I2_n791
*1043 mult_41_I2_n790
*1044 mult_41_I2_n789
*1045 mult_41_I2_n788
*1046 mult_41_I2_n787
*1047 mult_41_I2_n786
*1048 mult_41_I2_n785
*1049 mult_41_I2_n784
*1050 mult_41_I2_n783
*1051 mult_41_I2_n782
*1052 mult_41_I2_n781
*1053 mult_41_I2_n780
*1054 mult_41_I2_n779
*1055 mult_41_I2_n778
*1056 mult_41_I2_n777
*1057 mult_41_I2_n776
*1058 mult_41_I2_n775
*1059 mult_41_I2_n774
*1060 mult_41_I2_n773
*1061 mult_41_I2_n772
*1062 mult_41_I2_n771
*1063 mult_41_I2_n770
*1064 mult_41_I2_n769
*1065 mult_41_I2_n768
*1066 mult_41_I2_n767
*1067 mult_41_I2_n766
*1068 mult_41_I2_n765
*1069 mult_41_I2_n764
*1070 mult_41_I2_n763
*1071 mult_41_I2_n762
*1072 mult_41_I2_n761
*1073 mult_41_I2_n760
*1074 mult_41_I2_n759
*1075 mult_41_I2_n758
*1076 mult_41_I2_n757
*1077 mult_41_I2_n756
*1078 mult_41_I2_n755
*1079 mult_41_I2_n754
*1080 mult_41_I2_n753
*1081 mult_41_I2_n752
*1082 mult_41_I2_n751
*1083 mult_41_I2_n750
*1084 mult_41_I2_n749
*1085 mult_41_I2_n748
*1086 mult_41_I2_n747
*1087 mult_41_I2_n746
*1088 mult_41_I2_n745
*1089 mult_41_I2_n744
*1090 mult_41_I2_n743
*1091 mult_41_I2_n742
*1092 mult_41_I2_n741
*1093 mult_41_I2_n740
*1094 mult_41_I2_n739
*1095 mult_41_I2_n738
*1096 mult_41_I2_n737
*1097 mult_41_I2_n736
*1098 mult_41_I2_n735
*1099 mult_41_I2_n734
*1100 mult_41_I2_n733
*1101 mult_41_I2_n732
*1102 mult_41_I2_n731
*1103 mult_41_I2_n730
*1104 mult_41_I2_n729
*1105 mult_41_I2_n728
*1106 mult_41_I2_n727
*1107 mult_41_I2_n726
*1108 mult_41_I2_n725
*1109 mult_41_I2_n724
*1110 mult_41_I2_n723
*1111 mult_41_I2_n722
*1112 mult_41_I2_n721
*1113 mult_41_I2_n720
*1114 mult_41_I2_n719
*1115 mult_41_I2_n718
*1116 mult_41_I2_n717
*1117 mult_41_I2_n716
*1118 mult_41_I2_n715
*1119 mult_41_I2_n714
*1120 mult_41_I2_n713
*1121 mult_41_I2_n712
*1122 mult_41_I2_n711
*1123 mult_41_I2_n710
*1124 mult_41_I2_n709
*1125 mult_41_I2_n708
*1126 mult_41_I2_n707
*1127 mult_41_I2_n706
*1128 mult_41_I2_n705
*1129 mult_41_I2_n704
*1130 mult_41_I2_n703
*1131 mult_41_I2_n702
*1132 mult_41_I2_n701
*1133 mult_41_I2_n700
*1134 mult_41_I2_n699
*1135 mult_41_I2_n698
*1136 mult_41_I2_n697
*1137 mult_41_I2_n696
*1138 mult_41_I2_n695
*1139 mult_41_I2_n694
*1140 mult_41_I2_n693
*1141 mult_41_I2_n692
*1142 mult_41_I2_n691
*1143 mult_41_I2_n690
*1144 mult_41_I2_n689
*1145 mult_41_I2_n688
*1146 mult_41_I2_n687
*1147 mult_41_I2_n686
*1148 mult_41_I2_n685
*1149 mult_41_I2_n684
*1150 mult_41_I2_n683
*1151 mult_41_I2_n682
*1152 mult_41_I2_n681
*1153 mult_41_I2_n680
*1154 mult_41_I2_n679
*1155 mult_41_I2_n678
*1156 mult_41_I2_n677
*1157 mult_41_I2_n676
*1158 mult_41_I2_n675
*1159 mult_41_I2_n674
*1160 mult_41_I2_n673
*1161 mult_41_I2_n672
*1162 mult_41_I2_n671
*1163 mult_41_I2_n670
*1164 mult_41_I2_n669
*1165 mult_41_I2_n668
*1166 mult_41_I2_n667
*1167 mult_41_I2_n666
*1168 mult_41_I2_n665
*1169 mult_41_I2_n664
*1170 mult_41_I2_n663
*1171 mult_41_I2_n662
*1172 mult_41_I2_n661
*1173 mult_41_I2_n660
*1174 mult_41_I2_n659
*1175 mult_41_I2_n658
*1176 mult_41_I2_n657
*1177 mult_41_I2_n656
*1178 mult_41_I2_n655
*1179 mult_41_I2_n654
*1180 mult_41_I2_n653
*1181 mult_41_I2_n652
*1182 mult_41_I2_n651
*1183 mult_41_I2_n650
*1184 mult_41_I2_n649
*1185 mult_41_I2_n648
*1186 mult_41_I2_n647
*1187 mult_41_I2_n646
*1188 mult_41_I2_n645
*1189 mult_41_I2_n644
*1190 mult_41_I2_n643
*1191 mult_41_I2_n642
*1192 mult_41_I2_n641
*1193 mult_41_I2_n640
*1194 mult_41_I2_n639
*1195 mult_41_I2_n638
*1196 mult_41_I2_n637
*1197 mult_41_I2_n636
*1198 mult_41_I2_n635
*1199 mult_41_I2_n634
*1200 mult_41_I2_n633
*1201 mult_41_I2_n632
*1202 mult_41_I2_n631
*1203 mult_41_I2_n630
*1204 mult_41_I2_n629
*1205 mult_41_I2_n628
*1206 mult_41_I2_n627
*1207 mult_41_I2_n626
*1208 mult_41_I2_n625
*1209 mult_41_I2_n624
*1210 mult_41_I2_n623
*1211 mult_41_I2_n622
*1212 mult_41_I2_n621
*1213 mult_41_I2_n620
*1214 mult_41_I2_n619
*1215 mult_41_I2_n618
*1216 mult_41_I2_n617
*1217 mult_41_I2_n616
*1218 mult_41_I2_n615
*1219 mult_41_I2_n614
*1220 mult_41_I2_n613
*1221 mult_41_I2_n612
*1222 mult_41_I2_n611
*1223 mult_41_I2_n610
*1224 mult_41_I2_n609
*1225 mult_41_I2_n608
*1226 mult_41_I2_n607
*1227 mult_41_I2_n606
*1228 mult_41_I2_n605
*1229 mult_41_I2_n604
*1230 mult_41_I2_n603
*1231 mult_41_I2_n602
*1232 mult_41_I2_n601
*1233 mult_41_I2_n600
*1234 mult_41_I2_n599
*1235 mult_41_I2_n598
*1236 mult_41_I2_n597
*1237 mult_41_I2_n596
*1238 mult_41_I2_n595
*1239 mult_41_I2_n594
*1240 mult_41_I2_n593
*1241 mult_41_I2_n592
*1242 mult_41_I2_n591
*1243 mult_41_I2_n590
*1244 mult_41_I2_n589
*1245 mult_41_I2_n588
*1246 mult_41_I2_n587
*1247 mult_41_I2_n586
*1248 mult_41_I2_n585
*1249 mult_41_I2_n584
*1250 mult_41_I2_n583
*1251 mult_41_I2_n582
*1252 mult_41_I2_n581
*1253 mult_41_I2_n580
*1254 mult_41_I2_n579
*1255 mult_41_I2_n578
*1256 mult_41_I2_n577
*1257 mult_41_I2_n576
*1258 mult_41_I2_n575
*1259 mult_41_I2_n574
*1260 mult_41_I2_n573
*1261 mult_41_I2_n572
*1262 mult_41_I2_n571
*1263 mult_41_I2_n570
*1264 mult_41_I2_n569
*1265 mult_41_I2_n568
*1266 mult_41_I2_n567
*1267 mult_41_I2_n566
*1268 mult_41_I2_n565
*1269 mult_41_I2_n564
*1270 mult_41_I2_n563
*1271 mult_41_I2_n562
*1272 mult_41_I2_n561
*1273 mult_41_I2_n560
*1274 mult_41_I2_n559
*1275 mult_41_I2_n558
*1276 mult_41_I2_n557
*1277 mult_41_I2_n556
*1278 mult_41_I2_n555
*1279 mult_41_I2_n554
*1280 mult_41_I2_n553
*1281 mult_41_I2_n552
*1282 mult_41_I2_n551
*1283 mult_41_I2_n550
*1284 mult_41_I2_n549
*1285 mult_41_I2_n548
*1286 mult_41_I3_n515
*1287 mult_41_I3_n514
*1288 mult_41_I3_n513
*1289 mult_41_I3_n512
*1290 mult_41_I3_n511
*1291 mult_41_I3_n510
*1292 mult_41_I3_n509
*1293 mult_41_I3_n508
*1294 mult_41_I3_n507
*1295 mult_41_I3_n506
*1296 mult_41_I3_n505
*1297 mult_41_I3_n504
*1298 mult_41_I3_n503
*1299 mult_41_I3_n502
*1300 mult_41_I3_n501
*1301 mult_41_I3_n500
*1302 mult_41_I3_n499
*1303 mult_41_I3_n498
*1304 mult_41_I3_n497
*1305 mult_41_I3_n496
*1306 mult_41_I3_n495
*1307 mult_41_I3_n494
*1308 mult_41_I3_n493
*1309 mult_41_I3_n492
*1310 mult_41_I3_n491
*1311 mult_41_I3_n490
*1312 mult_41_I3_n489
*1313 mult_41_I3_n488
*1314 mult_41_I3_n487
*1315 mult_41_I3_n486
*1316 mult_41_I3_n485
*1317 mult_41_I3_n484
*1318 mult_41_I3_n483
*1319 mult_41_I3_n482
*1320 mult_41_I3_n481
*1321 mult_41_I3_n480
*1322 mult_41_I3_n479
*1323 mult_41_I3_n478
*1324 mult_41_I3_n477
*1325 mult_41_I3_n476
*1326 mult_41_I3_n475
*1327 mult_41_I3_n474
*1328 mult_41_I3_n473
*1329 mult_41_I3_n472
*1330 mult_41_I3_n471
*1331 mult_41_I3_n470
*1332 mult_41_I3_n469
*1333 mult_41_I3_n468
*1334 mult_41_I3_n467
*1335 mult_41_I3_n466
*1336 mult_41_I3_n465
*1337 mult_41_I3_n464
*1338 mult_41_I3_n463
*1339 mult_41_I3_n462
*1340 mult_41_I3_n461
*1341 mult_41_I3_n460
*1342 mult_41_I3_n459
*1343 mult_41_I3_n458
*1344 mult_41_I3_n457
*1345 mult_41_I3_n456
*1346 mult_41_I3_n455
*1347 mult_41_I3_n454
*1348 mult_41_I3_n453
*1349 mult_41_I3_n452
*1350 mult_41_I3_n451
*1351 mult_41_I3_n450
*1352 mult_41_I3_n449
*1353 mult_41_I3_n448
*1354 mult_41_I3_n447
*1355 mult_41_I3_n791
*1356 mult_41_I3_n790
*1357 mult_41_I3_n789
*1358 mult_41_I3_n788
*1359 mult_41_I3_n787
*1360 mult_41_I3_n786
*1361 mult_41_I3_n785
*1362 mult_41_I3_n784
*1363 mult_41_I3_n783
*1364 mult_41_I3_n782
*1365 mult_41_I3_n781
*1366 mult_41_I3_n780
*1367 mult_41_I3_n779
*1368 mult_41_I3_n778
*1369 mult_41_I3_n777
*1370 mult_41_I3_n776
*1371 mult_41_I3_n775
*1372 mult_41_I3_n774
*1373 mult_41_I3_n773
*1374 mult_41_I3_n772
*1375 mult_41_I3_n771
*1376 mult_41_I3_n770
*1377 mult_41_I3_n769
*1378 mult_41_I3_n768
*1379 mult_41_I3_n767
*1380 mult_41_I3_n766
*1381 mult_41_I3_n765
*1382 mult_41_I3_n764
*1383 mult_41_I3_n763
*1384 mult_41_I3_n762
*1385 mult_41_I3_n761
*1386 mult_41_I3_n760
*1387 mult_41_I3_n759
*1388 mult_41_I3_n758
*1389 mult_41_I3_n757
*1390 mult_41_I3_n756
*1391 mult_41_I3_n755
*1392 mult_41_I3_n754
*1393 mult_41_I3_n753
*1394 mult_41_I3_n752
*1395 mult_41_I3_n751
*1396 mult_41_I3_n750
*1397 mult_41_I3_n749
*1398 mult_41_I3_n748
*1399 mult_41_I3_n747
*1400 mult_41_I3_n746
*1401 mult_41_I3_n745
*1402 mult_41_I3_n744
*1403 mult_41_I3_n743
*1404 mult_41_I3_n742
*1405 mult_41_I3_n741
*1406 mult_41_I3_n740
*1407 mult_41_I3_n739
*1408 mult_41_I3_n738
*1409 mult_41_I3_n737
*1410 mult_41_I3_n736
*1411 mult_41_I3_n735
*1412 mult_41_I3_n734
*1413 mult_41_I3_n733
*1414 mult_41_I3_n732
*1415 mult_41_I3_n731
*1416 mult_41_I3_n730
*1417 mult_41_I3_n729
*1418 mult_41_I3_n728
*1419 mult_41_I3_n727
*1420 mult_41_I3_n726
*1421 mult_41_I3_n725
*1422 mult_41_I3_n724
*1423 mult_41_I3_n723
*1424 mult_41_I3_n722
*1425 mult_41_I3_n721
*1426 mult_41_I3_n720
*1427 mult_41_I3_n719
*1428 mult_41_I3_n718
*1429 mult_41_I3_n717
*1430 mult_41_I3_n716
*1431 mult_41_I3_n715
*1432 mult_41_I3_n714
*1433 mult_41_I3_n713
*1434 mult_41_I3_n712
*1435 mult_41_I3_n711
*1436 mult_41_I3_n710
*1437 mult_41_I3_n709
*1438 mult_41_I3_n708
*1439 mult_41_I3_n707
*1440 mult_41_I3_n706
*1441 mult_41_I3_n705
*1442 mult_41_I3_n704
*1443 mult_41_I3_n703
*1444 mult_41_I3_n702
*1445 mult_41_I3_n701
*1446 mult_41_I3_n700
*1447 mult_41_I3_n699
*1448 mult_41_I3_n698
*1449 mult_41_I3_n697
*1450 mult_41_I3_n696
*1451 mult_41_I3_n695
*1452 mult_41_I3_n694
*1453 mult_41_I3_n693
*1454 mult_41_I3_n692
*1455 mult_41_I3_n691
*1456 mult_41_I3_n690
*1457 mult_41_I3_n689
*1458 mult_41_I3_n688
*1459 mult_41_I3_n687
*1460 mult_41_I3_n686
*1461 mult_41_I3_n685
*1462 mult_41_I3_n684
*1463 mult_41_I3_n683
*1464 mult_41_I3_n682
*1465 mult_41_I3_n681
*1466 mult_41_I3_n680
*1467 mult_41_I3_n679
*1468 mult_41_I3_n678
*1469 mult_41_I3_n677
*1470 mult_41_I3_n676
*1471 mult_41_I3_n675
*1472 mult_41_I3_n674
*1473 mult_41_I3_n673
*1474 mult_41_I3_n672
*1475 mult_41_I3_n671
*1476 mult_41_I3_n670
*1477 mult_41_I3_n669
*1478 mult_41_I3_n668
*1479 mult_41_I3_n667
*1480 mult_41_I3_n666
*1481 mult_41_I3_n665
*1482 mult_41_I3_n664
*1483 mult_41_I3_n663
*1484 mult_41_I3_n662
*1485 mult_41_I3_n661
*1486 mult_41_I3_n660
*1487 mult_41_I3_n659
*1488 mult_41_I3_n658
*1489 mult_41_I3_n657
*1490 mult_41_I3_n656
*1491 mult_41_I3_n655
*1492 mult_41_I3_n654
*1493 mult_41_I3_n653
*1494 mult_41_I3_n652
*1495 mult_41_I3_n651
*1496 mult_41_I3_n650
*1497 mult_41_I3_n649
*1498 mult_41_I3_n648
*1499 mult_41_I3_n647
*1500 mult_41_I3_n646
*1501 mult_41_I3_n645
*1502 mult_41_I3_n644
*1503 mult_41_I3_n643
*1504 mult_41_I3_n642
*1505 mult_41_I3_n641
*1506 mult_41_I3_n640
*1507 mult_41_I3_n639
*1508 mult_41_I3_n638
*1509 mult_41_I3_n637
*1510 mult_41_I3_n636
*1511 mult_41_I3_n635
*1512 mult_41_I3_n634
*1513 mult_41_I3_n633
*1514 mult_41_I3_n632
*1515 mult_41_I3_n631
*1516 mult_41_I3_n630
*1517 mult_41_I3_n629
*1518 mult_41_I3_n628
*1519 mult_41_I3_n627
*1520 mult_41_I3_n626
*1521 mult_41_I3_n625
*1522 mult_41_I3_n624
*1523 mult_41_I3_n623
*1524 mult_41_I3_n622
*1525 mult_41_I3_n621
*1526 mult_41_I3_n620
*1527 mult_41_I3_n619
*1528 mult_41_I3_n618
*1529 mult_41_I3_n617
*1530 mult_41_I3_n616
*1531 mult_41_I3_n615
*1532 mult_41_I3_n614
*1533 mult_41_I3_n613
*1534 mult_41_I3_n612
*1535 mult_41_I3_n611
*1536 mult_41_I3_n610
*1537 mult_41_I3_n609
*1538 mult_41_I3_n608
*1539 mult_41_I3_n607
*1540 mult_41_I3_n606
*1541 mult_41_I3_n605
*1542 mult_41_I3_n604
*1543 mult_41_I3_n603
*1544 mult_41_I3_n602
*1545 mult_41_I3_n601
*1546 mult_41_I3_n600
*1547 mult_41_I3_n599
*1548 mult_41_I3_n598
*1549 mult_41_I3_n597
*1550 mult_41_I3_n596
*1551 mult_41_I3_n595
*1552 mult_41_I3_n594
*1553 mult_41_I3_n593
*1554 mult_41_I3_n592
*1555 mult_41_I3_n591
*1556 mult_41_I3_n590
*1557 mult_41_I3_n589
*1558 mult_41_I3_n588
*1559 mult_41_I3_n587
*1560 mult_41_I3_n586
*1561 mult_41_I3_n585
*1562 mult_41_I3_n584
*1563 mult_41_I3_n583
*1564 mult_41_I3_n582
*1565 mult_41_I3_n581
*1566 mult_41_I3_n580
*1567 mult_41_I3_n579
*1568 mult_41_I3_n578
*1569 mult_41_I3_n577
*1570 mult_41_I3_n576
*1571 mult_41_I3_n575
*1572 mult_41_I3_n574
*1573 mult_41_I3_n573
*1574 mult_41_I3_n572
*1575 mult_41_I3_n571
*1576 mult_41_I3_n570
*1577 mult_41_I3_n569
*1578 mult_41_I3_n568
*1579 mult_41_I3_n567
*1580 mult_41_I3_n566
*1581 mult_41_I3_n565
*1582 mult_41_I3_n564
*1583 mult_41_I3_n563
*1584 mult_41_I3_n562
*1585 mult_41_I3_n561
*1586 mult_41_I3_n560
*1587 mult_41_I3_n559
*1588 mult_41_I3_n558
*1589 mult_41_I3_n557
*1590 mult_41_I3_n556
*1591 mult_41_I3_n555
*1592 mult_41_I3_n554
*1593 mult_41_I3_n553
*1594 mult_41_I3_n552
*1595 mult_41_I3_n551
*1596 mult_41_I3_n550
*1597 mult_41_I3_n549
*1598 mult_41_I3_n548
*1599 mult_41_I3_n547
*1600 mult_41_I3_n546
*1601 mult_41_I3_n545
*1602 mult_41_I3_n544
*1603 mult_41_I3_n543
*1604 mult_41_I3_n542
*1605 mult_41_I3_n541
*1606 mult_41_I3_n540
*1607 mult_41_I3_n539
*1608 mult_41_I3_n538
*1609 mult_41_I3_n537
*1610 mult_41_I3_n536
*1611 mult_41_I3_n535
*1612 mult_41_I3_n534
*1613 mult_41_I3_n533
*1614 mult_41_I3_n532
*1615 mult_41_I3_n531
*1616 mult_41_I3_n530
*1617 mult_41_I3_n529
*1618 mult_41_I3_n528
*1619 mult_41_I3_n527
*1620 mult_41_I3_n526
*1621 mult_41_I3_n525
*1622 mult_41_I3_n524
*1623 mult_41_I3_n523
*1624 mult_41_I3_n522
*1625 mult_41_I3_n521
*1626 mult_41_I3_n520
*1627 mult_41_I3_n519
*1628 mult_41_I3_n518
*1629 mult_41_I3_n517
*1630 mult_41_I3_n516
*1631 mult_41_I4_n511
*1632 mult_41_I4_n510
*1633 mult_41_I4_n509
*1634 mult_41_I4_n508
*1635 mult_41_I4_n507
*1636 mult_41_I4_n506
*1637 mult_41_I4_n505
*1638 mult_41_I4_n504
*1639 mult_41_I4_n503
*1640 mult_41_I4_n502
*1641 mult_41_I4_n501
*1642 mult_41_I4_n500
*1643 mult_41_I4_n499
*1644 mult_41_I4_n498
*1645 mult_41_I4_n497
*1646 mult_41_I4_n496
*1647 mult_41_I4_n495
*1648 mult_41_I4_n494
*1649 mult_41_I4_n493
*1650 mult_41_I4_n492
*1651 mult_41_I4_n491
*1652 mult_41_I4_n490
*1653 mult_41_I4_n489
*1654 mult_41_I4_n488
*1655 mult_41_I4_n487
*1656 mult_41_I4_n486
*1657 mult_41_I4_n485
*1658 mult_41_I4_n484
*1659 mult_41_I4_n483
*1660 mult_41_I4_n482
*1661 mult_41_I4_n481
*1662 mult_41_I4_n480
*1663 mult_41_I4_n479
*1664 mult_41_I4_n478
*1665 mult_41_I4_n477
*1666 mult_41_I4_n476
*1667 mult_41_I4_n475
*1668 mult_41_I4_n474
*1669 mult_41_I4_n473
*1670 mult_41_I4_n472
*1671 mult_41_I4_n471
*1672 mult_41_I4_n470
*1673 mult_41_I4_n469
*1674 mult_41_I4_n468
*1675 mult_41_I4_n467
*1676 mult_41_I4_n466
*1677 mult_41_I4_n465
*1678 mult_41_I4_n464
*1679 mult_41_I4_n463
*1680 mult_41_I4_n462
*1681 mult_41_I4_n461
*1682 mult_41_I4_n460
*1683 mult_41_I4_n459
*1684 mult_41_I4_n458
*1685 mult_41_I4_n457
*1686 mult_41_I4_n456
*1687 mult_41_I4_n455
*1688 mult_41_I4_n454
*1689 mult_41_I4_n453
*1690 mult_41_I4_n452
*1691 mult_41_I4_n451
*1692 mult_41_I4_n450
*1693 mult_41_I4_n449
*1694 mult_41_I4_n448
*1695 mult_41_I4_n447
*1696 mult_41_I4_n446
*1697 mult_41_I4_n445
*1698 mult_41_I4_n444
*1699 mult_41_I4_n443
*1700 mult_41_I4_n442
*1701 mult_41_I4_n789
*1702 mult_41_I4_n788
*1703 mult_41_I4_n787
*1704 mult_41_I4_n786
*1705 mult_41_I4_n785
*1706 mult_41_I4_n784
*1707 mult_41_I4_n783
*1708 mult_41_I4_n782
*1709 mult_41_I4_n781
*1710 mult_41_I4_n780
*1711 mult_41_I4_n779
*1712 mult_41_I4_n778
*1713 mult_41_I4_n777
*1714 mult_41_I4_n776
*1715 mult_41_I4_n775
*1716 mult_41_I4_n774
*1717 mult_41_I4_n773
*1718 mult_41_I4_n772
*1719 mult_41_I4_n771
*1720 mult_41_I4_n770
*1721 mult_41_I4_n769
*1722 mult_41_I4_n768
*1723 mult_41_I4_n767
*1724 mult_41_I4_n766
*1725 mult_41_I4_n765
*1726 mult_41_I4_n764
*1727 mult_41_I4_n763
*1728 mult_41_I4_n762
*1729 mult_41_I4_n761
*1730 mult_41_I4_n760
*1731 mult_41_I4_n759
*1732 mult_41_I4_n758
*1733 mult_41_I4_n757
*1734 mult_41_I4_n756
*1735 mult_41_I4_n755
*1736 mult_41_I4_n754
*1737 mult_41_I4_n753
*1738 mult_41_I4_n752
*1739 mult_41_I4_n751
*1740 mult_41_I4_n750
*1741 mult_41_I4_n749
*1742 mult_41_I4_n748
*1743 mult_41_I4_n747
*1744 mult_41_I4_n746
*1745 mult_41_I4_n745
*1746 mult_41_I4_n744
*1747 mult_41_I4_n743